/*--------------------------------*- C++ -*----------------------------------*\
  =========                 |
  \\      /  F ield         | OpenFOAM: The Open Source CFD Toolbox
   \\    /   O peration     | Website:  https://openfoam.org
    \\  /    A nd           | Version:  6
     \\/     M anipulation  |
\*---------------------------------------------------------------------------*/
FoamFile
{
    version     2.0;
    format      ascii;
    class       dictionary;
    location	"constant";
    object      transportProperties;
}
// * * * * * * * * * * * * * * * * * * * * * * * * * * * * * * * * * * * * * //


transportModel  Newtonian;

nu0              [0 2 -1 0 0 0 0] 1.8051e-04;
nu1              [0 2 -1 0 0 0 0] 0;
//nu1            [0 2 -1 0 0 0 0] 9.0255e-05 ;   

// ************************************************************************* //
