/*--------------------------------*- C++ -*----------------------------------*\
| =========                 |                                                 |
| \\      /  F ield         | OpenFOAM: The Open Source CFD Toolbox           |
|  \\    /   O peration     | Version:  2.1.1                                 |
|   \\  /    A nd           | Web:      www.OpenFOAM.com                      |
|    \\/     M anipulation  |                                                 |
\*---------------------------------------------------------------------------*/
FoamFile
{
    version     2.0;
    format      ascii;
    class       volScalarField;
    location    "0";
    object      epsilon;
}
// * * * * * * * * * * * * * * * * * * * * * * * * * * * * * * * * * * * * * //

dimensions      [0 2 -3 0 0 0 0];

internalField   uniform 0.0002;


boundaryField
{

   inlet
    {
        type            fixedValue;
        value           uniform 1.3476e-04;
    }


//    inlet
//    {
//	type 		timeVaryingMappedFixedValue;
//	setAverage	off;
//	offset 		0;
//    }

    outlet
    {
        type            zeroGradient;
    }
    Wall
    {   //type		epsilonLowReWallFunction;
        type            epsilonWallFunction;
        Cmu             0.09;
        kappa           0.41;
        E               9.8;
      value           uniform 0.0002; // choose initial condition
    }
    VerticalWall // not included in channel flow
    {
        type            epsilonWallFunction;
        Cmu             0.09;
        kappa           0.41;
        E               9.8;
       value           uniform 0.0002;
    }
    frontAndBack
    {
        type            empty;
    }
}



// ************************************************************************* //
