/*--------------------------------*- C++ -*----------------------------------*\
| =========                 |                                                 |
| \\      /  F ield         | OpenFOAM: The Open Source CFD Toolbox           |
|  \\    /   O peration     | Version:  2.1.1                                 |
|   \\  /    A nd           | Web:      www.OpenFOAM.org                      |
|    \\/     M anipulation  |                                                 |
\*---------------------------------------------------------------------------*/
FoamFile
{
    version     2.0;
    format      ascii;
    class       volVectorField;
    object      U;
}
// * * * * * * * * * * * * * * * * * * * * * * * * * * * * * * * * * * * * * //

dimensions      [0 1 -1 0 0 0 0];

internalField   uniform (0 0 0);

boundaryField
{

   inlet
    {
        type            fixedValue;
        value           uniform (0.07 0 0);   // 0.73167, 1, 1.2683
    }


//    inlet
//    {
//	type 		timeVaryingMappedFixedValue;
//	setAverage	off;
//offset 		(0 0 0);
 //   }

    outlet
    {
        type            zeroGradient;
    }

    Wall
    {
        type            fixedValue;
        value           uniform (0 0 0);
    }

    //VerticalWall
    //{
        //type            fixedValue;
        //value           uniform (0 0 0);
    //}

    frontAndBack
    {
        type            empty;
    }
}

// ************************************************************************* //
