/*--------------------------------*- C++ -*----------------------------------*\
  =========                 |
  \\      /  F ield         | OpenFOAM: The Open Source CFD Toolbox
   \\    /   O peration     | Website:  https://openfoam.org
    \\  /    A nd           | Version:  6
     \\/     M anipulation  |
\*---------------------------------------------------------------------------*/
/*FoamFile
{
    version     2.0;
    format      ascii;
    class       scalarAverageField;
    object      values;
}*/
// * * * * * * * * * * * * * * * * * * * * * * * * * * * * * * * * * * * * * //

// Average
//0.0

// Data on points
328
(

//miny
39.9579390116
39.9579390116
24.7953216374
34.7222222222
26.0958205912
18.1657848325
13.7741046832
9.9311701082
6.9444444444
6.0675381264
4.6646237657
3.3370003667
3.3295922185
2.774566474
2.4031007752
2.53459378
1.6631726066
1.8081073199
2.2251694665
2.0067876642
1.8676796455
1.8080667594
1.5291847564
1.0676328502
1.5989974937
1.5273423894
1.5279931094
1.9975031211
1.0671792056
0.5564799408
1.5275411698
1.3908730159
1.0663410663
1.4661050943
1.2489862125
0.8328179757
0.5341055341
0.7994842037
1.5283267457
1.6678216678
0.8005521049
0.5346350535
1.2512291052
1.3323500492
0.6651718984
0.8333333333
1.1111111111
0.5568689257
0.66774804
0.7994579946
0.970499035
1.2503626342
0.7991681521
0.5330937406
0.6936771025
0.9714632665
0.5318138651
0.2662942272
0.8341675008
0.5555555556
0.3985890653
0.5329153605
0.6953405018
0.6944444444
0.3992467043
0.5338078292
0.8303677343
0.5576679341
0.4161616162
0.4005167959
0.3911439114
0.4163473819
0.416998672
0.335978836
0.2665752172
0.2775453278
0.1390013495
0.2666666667
0.1333333333
0.1346516008
0.138769671
0.1332371332
0.2124183007
0.3031609195
0.166424066
0.2226990939
0.1111111111
0.1669071669
0.3328779599
0.332876086
0.2222222222
0.1664470795
0.3337760071
0.6666666667
0.2222222222
0.1111111111
0.8312757202
0.6643757159
0.4444444444
0.5574516496
0.8342945021
0.3333333333
0.4985754986
0.6659656502
0.6653359947
1.1676646707
0.9993425378
0.6660262568
0.5540334855
0.66549399
0.9985185185
1.3327500729
0.4433077579
0.445572476
0.9994272623
0.8326440585
0.6661272923
0.9997409997
0.998980632
1
0.8883939619
0.6671466283
1.3333333333
0.9995446266
1.167251462
1.1111111111
1.2213225371
1.3337615072
0.8344141807
0.8900944344
1.1111111111
1.6656472987
1.9953051643
1.9908987486
0.9988776655
0.6659246893
1.1678564891
1.9978969506
1.6675122611
1.5565565566
1.4994116658
1.8273780388
2.6679221594
1.3333333333
1.4432200796
2.328042328
2.1683864214
2.1032782129
1.9967400163
3.164983165
3.1671858775
3.6662925552
3.6641764497
4.3324188386
7.6635514019
8.9615784008
7.5396825397
11.5009746589
25.6038647343
36.316872428
39.9009756808
17.3011451563
17.3872617387
17.3872617387

//maxy
39.9579390116
39.9579390116
24.7953216374
34.7222222222
26.0958205912
18.1657848325
13.7741046832
9.9311701082
6.9444444444
6.0675381264
4.6646237657
3.3370003667
3.3295922185
2.774566474
2.4031007752
2.53459378
1.6631726066
1.8081073199
2.2251694665
2.0067876642
1.8676796455
1.8080667594
1.5291847564
1.0676328502
1.5989974937
1.5273423894
1.5279931094
1.9975031211
1.0671792056
0.5564799408
1.5275411698
1.3908730159
1.0663410663
1.4661050943
1.2489862125
0.8328179757
0.5341055341
0.7994842037
1.5283267457
1.6678216678
0.8005521049
0.5346350535
1.2512291052
1.3323500492
0.6651718984
0.8333333333
1.1111111111
0.5568689257
0.66774804
0.7994579946
0.970499035
1.2503626342
0.7991681521
0.5330937406
0.6936771025
0.9714632665
0.5318138651
0.2662942272
0.8341675008
0.5555555556
0.3985890653
0.5329153605
0.6953405018
0.6944444444
0.3992467043
0.5338078292
0.8303677343
0.5576679341
0.4161616162
0.4005167959
0.3911439114
0.4163473819
0.416998672
0.335978836
0.2665752172
0.2775453278
0.1390013495
0.2666666667
0.1333333333
0.1346516008
0.138769671
0.1332371332
0.2124183007
0.3031609195
0.166424066
0.2226990939
0.1111111111
0.1669071669
0.3328779599
0.332876086
0.2222222222
0.1664470795
0.3337760071
0.6666666667
0.2222222222
0.1111111111
0.8312757202
0.6643757159
0.4444444444
0.5574516496
0.8342945021
0.3333333333
0.4985754986
0.6659656502
0.6653359947
1.1676646707
0.9993425378
0.6660262568
0.5540334855
0.66549399
0.9985185185
1.3327500729
0.4433077579
0.445572476
0.9994272623
0.8326440585
0.6661272923
0.9997409997
0.998980632
1
0.8883939619
0.6671466283
1.3333333333
0.9995446266
1.167251462
1.1111111111
1.2213225371
1.3337615072
0.8344141807
0.8900944344
1.1111111111
1.6656472987
1.9953051643
1.9908987486
0.9988776655
0.6659246893
1.1678564891
1.9978969506
1.6675122611
1.5565565566
1.4994116658
1.8273780388
2.6679221594
1.3333333333
1.4432200796
2.328042328
2.1683864214
2.1032782129
1.9967400163
3.164983165
3.1671858775
3.6662925552
3.6641764497
4.3324188386
7.6635514019
8.9615784008
7.5396825397
11.5009746589
25.6038647343
36.316872428
39.9009756808
17.3011451563
17.3872617387
17.3872617387

)

// ************************************************************************* //
