/*--------------------------------*- C++ -*----------------------------------*\
  =========                 |
  \\      /  F ield         | OpenFOAM: The Open Source CFD Toolbox
   \\    /   O peration     | Website:  https://openfoam.org
    \\  /    A nd           | Version:  6
     \\/     M anipulation  |
\*---------------------------------------------------------------------------*/
FoamFile
{
    version     2.0;
    format      ascii;
    class       dictionary;
    object      blockMeshDict;
}
// * * * * * * * * * * * * * * * * * * * * * * * * * * * * * * * * * * * * * //

convertToMeters 1;

vertices        
(

  // Block inlet
  (-2 0 1)   	// 0
  (25 0 1)	// 1
  (25 0.125 1)	// 2
  (-2 0.125 1) 	// 3
  
  (-2 0 3)   		// 4
  (25 0 3)		// 5
  (25 0.125 3)		// 6
  (-2 0.125 3)		// 7
  

  //Block upper expansion
  (15 0 1)   		// 8
  (15 0.125 1)		// 9
  (15 0 3)		// 10
  (15 0.125 3)		// 11
  
   //Block bottom expansion
  (0 0 0)   		// 12
  (15 0 0)		// 13
  (15 0.125 0)		// 14
  (0 0.125 0)		// 15
  
);

blocks          
(
   hex (0 1 2 3 4 5 6 7) (50 1 100) simpleGrading (1 1 1) //Block inlet 
  // hex (1 8 9 2 5 10 11 6) (120 1 16) simpleGrading (1 1 1) // Block upper expansion
 //  hex (12 13 14 15 1 8 9 2) (120 1 8) simpleGrading (1 1 1) // Block bottom expansion	
);

edges           
(
);



boundary 
(
    inlet
    { 
      type 	patch;
      faces 
      (
      (3 0 4 7)
      );
    }

	outlet
	{
	  type 	patch;
	  faces 
	  (
	  (1 2 6 5)
	  //(8 9 11 10)
	 // (13 14 9 8)
	  );	
	}

    Wall 
    {
	  type wall;
	  faces 
	  (
	     (0 3 2 1)	
	     (4 5 6 7)
	  //(3 2 1 0)
	  //(5 10 11 6)
	  //(15 14 13 12)
	  );
    }

    //VerticalWall 
    //{
	//  type wall;
	  //faces 
	  //(
	  //(15 12 1 2)
	  //);
    //}
    
    	frontAndBack
	{
	  type 	empty;
	  faces 
	  (
	    (0 1 5 4)
	   // (1 8 10 5)
	    //(12 13 8 1)
	    (7 6 2 3)
	    //(6 11 9 2)
	   // (2 9 14 15)
	  );	
	}
    
    
    
);

mergePatchPairs
(
);

// ************************************************************************* //
