/*--------------------------------*- C++ -*----------------------------------*\
	torch::Tensor input = cnn_instance.convertToTensor(U0, U1);
	torch::Tensor output = cnn_instance.predict(input);
	cnn_instance.updateFoamFieldChannelFlow(output, nut0_cnn, nut1_cnn);
  =========                 |
  \\      /  F ield         | OpenFOAM: The Open Source CFD Toolbox
   \\    /   O peration     | Website:  https://openfoam.org
    \\  /    A nd           | Version:  6
     \\/     M anipulation  |
\*---------------------------------------------------------------------------*/
FoamFile
{
    version     2.0;
    format      ascii;
    class       dictionary;
    object      controlDict;
}
// * * * * * * * * * * * * * * * * * * * * * * * * * * * * * * * * * * * * * //

application     pisoFoamPC;

startFrom       latestTime;

startTime       0;

stopAt          endTime;

endTime         50; // 4

deltaT          0.1;  // 0.1

writeControl    runTime;

writeInterval   0.1; //100

purgeWrite      0;

writeFormat     ascii;

writePrecision  8;

writeCompression compressed;

timeFormat      general;

timePrecision   6;

runTimeModifiable yes;

//functions
//{
//#includeFunc residuals 
//#includeFunc yPlus
//#includeFunc sets
//#includeFunc wallShearStress
//
//fieldAverage1
//{
//type 		fieldAverage;
//libs		("libfieldFunctionObjects.so");
//writeControl 	writeTime;
//restartOnRestart	false;
//restartOnOutput		false;
//periodicRestart		false;
//
//fields
//(
  //U
  //{mean 	on;
    //prime2Mean	off;
    //base 	time;
  //}
  //);
//
 // 
 // 
 // 
//}
  
  
}


// ************************************************************************* //
